# Makefile for the HydroDynamics (HD) Module 

VPATH += $(SRC)/HD
INCLUDE_DIRS += -I$(SRC)/HD
OBJ +=  ausm.o eigenv.o fluxes.o mappers.o  prim_eqn.o \
        hll_speed.o hll.o  hllc.o rhs.o riemann.o set_solver.o \
        tvdlf.o roe.o   



