# Makefile for the Relativistic HydroDynamics (RHD) Module 

VPATH += $(SRC)/RHD/
INCLUDE_DIRS += -I$(SRC)/RHD/
OBJ += eigenv.o energy_solve.o entropy_solve.o \
       fluxes.o mappers.o pressure_fix.o prim_eqn.o \
       hll_speed.o hll.o hllc.o rhs.o riemann.o \
       set_solver.o tvdlf.o vel_limiter.o 
 

